72
Lattice="6.9579 0.0 0.0 -3.4789489483 6.0257187642 0.0 2.3192962051 1.3390506061 7.5747913308" Origin="-1.1596503506 -2.0085729214 0.0" Properties=species:S:1:pos:R:3
C 0.7820168294 -0.3581597614 2.25792554
C 0.7820176094 -1.6972088714 0.36422771
C -0.3776335406 -1.0276839414 2.73134995
C -1.5372824106 -0.3581601314 0.83765212
C 1.941664932 0.3113655417 6.0453212054
C 1.941665712 -1.0276835683 4.1516233754
C 0.782014562 -0.3581586383 6.5187456154
C -0.377634308 0.3113651717 4.6250477854
C -0.37763282 1.65041316 2.25792554
C -0.37763204 0.31136405 0.36422771
C -1.53728319 0.98088898 2.73134995
C -2.69693206 1.65041279 0.83765212
C 0.7820152825 2.3199384631 6.0453212054
C 0.7820160625 0.9808893531 4.1516233754
C -0.3776350875 1.6504142831 6.5187456154
C -1.5372839575 2.3199380931 4.6250477854
C -1.5372824694 3.6589860814 2.25792554
C -1.5372816894 2.3199369714 0.36422771
C -2.6969328394 2.9894619014 2.73134995
C -3.8565817094 3.6589857114 0.83765212
C -0.3776343669 4.3285113845 6.0453212054
C -0.3776335869 2.9894622745 4.1516233754
C -1.5372847369 3.6589872045 6.5187456154
C -2.6969336069 4.3285110145 4.6250477854
C 3.1013168294 -0.3581597614 2.25792554
C 3.1013176094 -1.6972088714 0.36422771
C 1.9416664594 -1.0276839414 2.73134995
C 0.7820175894 -0.3581601314 0.83765212
C 4.260964932 0.3113655417 6.0453212054
C 4.260965712 -1.0276835683 4.1516233754
C 3.101314562 -0.3581586383 6.5187456154
C 1.941665692 0.3113651717 4.6250477854
C 1.94166718 1.65041316 2.25792554
C 1.94166796 0.31136405 0.36422771
C 0.78201681 0.98088898 2.73134995
C -0.37763206 1.65041279 0.83765212
C 3.1013152825 2.3199384631 6.0453212054
C 3.1013160625 0.9808893531 4.1516233754
C 1.9416649125 1.6504142831 6.5187456154
C 0.7820160425 2.3199380931 4.6250477854
C 0.7820175306 3.6589860814 2.25792554
C 0.7820183106 2.3199369714 0.36422771
C -0.3776328394 2.9894619014 2.73134995
C -1.5372817094 3.6589857114 0.83765212
C 1.9416656331 4.3285113845 6.0453212054
C 1.9416664131 2.9894622745 4.1516233754
C 0.7820152631 3.6589872045 6.5187456154
C -0.3776336069 4.3285110145 4.6250477854
C 5.4206168294 -0.3581597614 2.25792554
C 5.4206176094 -1.6972088714 0.36422771
C 4.2609664594 -1.0276839414 2.73134995
C 3.1013175894 -0.3581601314 0.83765212
C 6.580264932 0.3113655417 6.0453212054
C 6.580265712 -1.0276835683 4.1516233754
C 5.420614562 -0.3581586383 6.5187456154
C 4.260965692 0.3113651717 4.6250477854
C 4.26096718 1.65041316 2.25792554
C 4.26096796 0.31136405 0.36422771
C 3.10131681 0.98088898 2.73134995
C 1.94166794 1.65041279 0.83765212
C 5.4206152825 2.3199384631 6.0453212054
C 5.4206160625 0.9808893531 4.1516233754
C 4.2609649125 1.6504142831 6.5187456154
C 3.1013160425 2.3199380931 4.6250477854
C 3.1013175306 3.6589860814 2.25792554
C 3.1013183106 2.3199369714 0.36422771
C 1.9416671606 2.9894619014 2.73134995
C 0.7820182906 3.6589857114 0.83765212
C 4.2609656331 4.3285113845 6.0453212054
C 4.2609664131 2.9894622745 4.1516233754
C 3.1013152631 3.6589872045 6.5187456154
C 1.9416663931 4.3285110145 4.6250477854
